Version 4
SHEET 1 1220 804
WIRE 80 -128 64 -128
WIRE 160 -128 144 -128
WIRE 832 -112 816 -112
WIRE 912 -112 896 -112
WIRE 64 -80 64 -128
WIRE 64 -80 -48 -80
WIRE 160 -80 160 -128
WIRE 320 -80 160 -80
WIRE 448 -80 320 -80
WIRE 672 -80 528 -80
WIRE 816 -80 816 -112
WIRE 816 -80 672 -80
WIRE 912 -80 912 -112
WIRE 1008 -80 912 -80
WIRE 1136 -80 1008 -80
WIRE -48 0 -48 -80
WIRE 1136 16 1136 -80
WIRE 1008 32 1008 -80
WIRE 320 80 320 -80
WIRE 368 80 320 80
WIRE 672 80 672 -80
WIRE 672 80 640 80
WIRE 368 96 368 80
WIRE 640 96 640 80
WIRE 144 160 144 -32
WIRE 144 160 96 160
WIRE 176 160 144 160
WIRE 272 160 240 160
WIRE 752 160 720 160
WIRE 832 160 832 -32
WIRE 832 160 816 160
WIRE 368 176 368 160
WIRE 368 176 320 176
WIRE 640 176 640 160
WIRE 672 176 640 176
WIRE -48 208 -48 80
WIRE 176 208 176 176
WIRE 320 208 320 176
WIRE 672 208 672 176
WIRE 816 208 816 176
WIRE 1008 208 1008 96
WIRE 1136 208 1136 96
WIRE 832 304 832 160
WIRE 832 304 160 304
WIRE 544 400 400 400
WIRE 672 400 624 400
WIRE 672 416 672 400
WIRE 160 496 160 304
WIRE 240 496 160 496
WIRE 656 496 336 496
WIRE 400 544 400 400
WIRE 400 544 336 544
WIRE 656 576 656 496
WIRE 656 576 512 576
WIRE 336 608 336 576
WIRE 656 624 656 576
WIRE 96 672 96 160
WIRE 240 672 96 672
WIRE 512 672 512 576
WIRE 512 672 336 672
WIRE 400 720 400 544
WIRE 400 720 336 720
WIRE 336 784 336 752
FLAG 176 208 0
FLAG 816 208 0
FLAG 1136 208 0
FLAG 1008 208 0
FLAG -48 208 0
FLAG 320 208 0
FLAG 672 208 0
FLAG 672 416 0
FLAG 336 608 0
FLAG 336 784 0
FLAG 656 704 0
SYMBOL InfineonNMOS\\2N7002_L0 64 -32 R270
WINDOW 0 30 -34 VRight 2
WINDOW 3 -10 -18 VRight 2
SYMATTR InstName U1
SYMBOL InfineonNMOS\\2N7002_L0 272 80 R0
WINDOW 0 7 -4 Left 2
WINDOW 3 -22 -33 Left 2
SYMATTR InstName U2
SYMBOL InfineonNMOS\\2N7002_L0 912 -32 M270
WINDOW 0 24 0 VLeft 2
WINDOW 3 -12 121 VLeft 2
SYMATTR InstName U3
SYMBOL InfineonNMOS\\2N7002_L0 720 80 M0
WINDOW 0 2 -8 Left 2
WINDOW 3 -29 -35 Left 2
SYMATTR InstName U4
SYMBOL ind 432 -64 R270
WINDOW 0 32 56 VTop 2
WINDOW 3 5 56 VBottom 2
SYMATTR InstName L1
SYMATTR Value 100µH
SYMBOL Digital\\inv 176 96 R0
SYMATTR InstName A1
SYMBOL Digital\\inv 816 96 M0
SYMATTR InstName A2
SYMBOL cap 992 32 R0
SYMATTR InstName C1
SYMATTR Value 66µf
SYMBOL res 1120 0 R0
SYMATTR InstName R1
SYMATTR Value 282R
SYMBOL voltage -48 -16 R0
WINDOW 123 0 0 Left 0
WINDOW 39 0 0 Left 0
SYMATTR InstName V1
SYMATTR Value 12
SYMBOL Digital\\srflop 288 448 M0
SYMATTR InstName A3
SYMBOL Digital\\srflop 288 624 M0
SYMATTR InstName A4
SYMBOL diode 144 -144 R90
WINDOW 0 0 32 VBottom 2
WINDOW 3 -27 -1 VTop 2
SYMATTR InstName D1
SYMBOL diode 384 160 R180
WINDOW 0 -25 74 Left 2
WINDOW 3 -16 6 Left 2
SYMATTR InstName D2
SYMBOL diode 656 160 R180
WINDOW 0 24 64 Left 2
WINDOW 3 28 4 Left 2
SYMATTR InstName D3
SYMBOL diode 832 -96 R270
WINDOW 0 32 32 VTop 2
WINDOW 3 56 -9 VBottom 2
SYMATTR InstName D4
SYMBOL voltage 528 400 R270
WINDOW 0 32 56 VTop 2
WINDOW 3 -32 56 VBottom 2
WINDOW 123 0 0 Left 0
WINDOW 39 0 0 Left 0
SYMATTR InstName V2
SYMATTR Value PULSE(0 22 0 0 0 10us 20us)
SYMBOL voltage 656 608 R0
WINDOW 123 0 0 Left 0
WINDOW 39 0 0 Left 0
SYMATTR InstName V3
SYMATTR Value 5
SYMBOL sw -192 -208 R0
SYMATTR InstName S1
TEXT -2 352 Left 2 !.tran 0 1ms 0 1
