Version 4
SHEET 1 1520 980
WIRE 80 -128 64 -128
WIRE 160 -128 144 -128
WIRE 832 -112 816 -112
WIRE 912 -112 896 -112
WIRE 64 -80 64 -128
WIRE 64 -80 -48 -80
WIRE 80 -80 64 -80
WIRE 160 -80 160 -128
WIRE 320 -80 160 -80
WIRE 448 -80 320 -80
WIRE 672 -80 528 -80
WIRE 816 -80 816 -112
WIRE 816 -80 672 -80
WIRE 912 -80 912 -112
WIRE 912 -80 896 -80
WIRE 1008 -80 912 -80
WIRE 1136 -80 1008 -80
WIRE 1232 -80 1136 -80
WIRE -48 0 -48 -80
WIRE 1136 16 1136 -80
WIRE 1008 32 1008 -80
WIRE 320 80 320 -80
WIRE 368 80 320 80
WIRE 672 80 672 -80
WIRE 672 80 640 80
WIRE 320 96 320 80
WIRE 368 96 368 80
WIRE 640 96 640 80
WIRE 672 96 672 80
WIRE 144 160 144 -32
WIRE 144 160 96 160
WIRE 176 160 144 160
WIRE 272 160 240 160
WIRE 752 160 720 160
WIRE 832 160 816 160
WIRE 368 176 368 160
WIRE 368 176 320 176
WIRE 640 176 640 160
WIRE 672 176 640 176
WIRE 1232 176 1232 -80
WIRE -48 208 -48 80
WIRE 176 208 176 176
WIRE 320 208 320 176
WIRE 672 208 672 176
WIRE 816 208 816 176
WIRE 1008 208 1008 96
WIRE 1136 208 1136 96
WIRE 832 304 832 160
WIRE 832 304 0 304
WIRE 1232 304 1232 256
WIRE 1312 304 1232 304
WIRE 1312 320 1312 304
WIRE 1184 336 1120 336
WIRE 1184 352 1184 336
WIRE 544 400 400 400
WIRE 672 400 624 400
WIRE 672 416 672 400
WIRE 1312 416 1312 384
WIRE 1120 448 1120 336
WIRE 1232 464 1232 304
WIRE 1232 464 1152 464
WIRE 736 480 576 480
WIRE 880 480 736 480
WIRE 944 480 880 480
WIRE 1088 480 1024 480
WIRE 96 496 96 160
WIRE 240 496 96 496
WIRE 512 496 336 496
WIRE 1232 496 1152 496
WIRE 656 512 576 512
WIRE 880 512 880 480
WIRE 736 528 736 480
WIRE 1232 528 1232 496
WIRE 400 544 400 400
WIRE 400 544 336 544
WIRE 336 608 336 576
WIRE 736 656 736 608
WIRE 736 656 576 656
WIRE 512 672 336 672
WIRE 656 688 656 512
WIRE 656 688 576 688
WIRE 0 720 0 304
WIRE 224 720 0 720
WIRE 240 720 224 720
WIRE 400 720 400 544
WIRE 400 720 336 720
WIRE 336 784 336 752
WIRE 656 800 656 688
FLAG 176 208 0
FLAG 816 208 0
FLAG 1136 208 0
FLAG 1008 208 0
FLAG -48 208 0
FLAG 320 208 0
FLAG 672 208 0
FLAG 672 416 0
FLAG 336 608 0
FLAG 336 784 0
FLAG 576 528 0
FLAG 96 -32 0
FLAG 272 112 0
FLAG 720 112 0
FLAG 880 -32 0
FLAG 576 704 0
FLAG 656 960 0
FLAG 1232 608 0
FLAG 1120 512 0
FLAG -48 -80 12V
FLAG 1184 432 0
FLAG 880 576 0
FLAG 1312 416 0
SYMBOL ind 432 -64 R270
WINDOW 0 32 56 VTop 2
WINDOW 3 5 56 VBottom 2
SYMATTR InstName L1
SYMATTR Value 100µH
SYMBOL Digital\\inv 176 96 R0
SYMATTR InstName A1
SYMBOL Digital\\inv 816 96 M0
SYMATTR InstName A2
SYMBOL cap 992 32 R0
SYMATTR InstName C1
SYMATTR Value 66µf
SYMBOL res 1120 0 R0
SYMATTR InstName R1
SYMATTR Value 282R
SYMBOL voltage -48 -16 R0
WINDOW 123 0 0 Left 0
WINDOW 39 0 0 Left 0
SYMATTR InstName V1
SYMATTR Value 12
SYMBOL Digital\\srflop 288 448 M0
SYMATTR InstName A3
SYMBOL Digital\\srflop 288 624 M0
SYMATTR InstName A4
SYMBOL diode 144 -144 R90
WINDOW 0 0 32 VBottom 2
WINDOW 3 -27 -1 VTop 2
SYMATTR InstName D1
SYMBOL diode 384 160 R180
WINDOW 0 -25 74 Left 2
WINDOW 3 -16 6 Left 2
SYMATTR InstName D2
SYMBOL diode 656 160 R180
WINDOW 0 24 64 Left 2
WINDOW 3 28 4 Left 2
SYMATTR InstName D3
SYMBOL diode 832 -96 R270
WINDOW 0 32 32 VTop 2
WINDOW 3 56 -9 VBottom 2
SYMATTR InstName D4
SYMBOL voltage 528 400 R270
WINDOW 0 32 56 VTop 2
WINDOW 3 82 45 VBottom 2
WINDOW 123 0 0 Left 0
WINDOW 39 0 0 Left 0
SYMATTR InstName V2
SYMATTR Value PULSE(0 1 0 0 0 10us 20us)
SYMBOL voltage 736 512 R0
WINDOW 123 0 0 Left 0
WINDOW 39 0 0 Left 0
SYMATTR InstName V3
SYMATTR Value 4
SYMBOL sw 64 -80 R270
SYMATTR InstName S1
SYMBOL sw 320 80 R0
SYMATTR InstName S2
SYMBOL sw 672 80 M0
SYMATTR InstName S3
SYMBOL sw 912 -80 M270
SYMATTR InstName S4
SYMBOL Digital\\diffschmtbuf 576 432 M0
WINDOW 0 -75 25 Left 2
SYMATTR InstName VBuck
SYMBOL Digital\\diffschmtbuf 576 608 M0
WINDOW 0 -85 33 Left 2
SYMATTR InstName VBoost
SYMBOL voltage 656 784 R0
WINDOW 3 51 55 Left 2
SYMATTR Value PWL REPEAT FOREVER ( 0 0 1ms 6+1n 0) ENDREPEAT
SYMATTR InstName V4
SYMBOL voltage 656 864 R0
WINDOW 123 0 0 Left 0
WINDOW 39 0 0 Left 0
SYMATTR InstName V5
SYMATTR Value 3
SYMBOL OpAmps\\AD711 1120 416 M0
WINDOW 3 10 10 Left 2
SYMATTR InstName U1
SYMBOL voltage 1232 512 R0
WINDOW 123 0 0 Left 0
WINDOW 39 0 0 Left 0
SYMATTR InstName Vref
SYMATTR Value SINE(-1 24 1)
SYMBOL voltage 1184 336 R0
WINDOW 123 0 0 Left 0
WINDOW 39 0 0 Left 0
WINDOW 0 -36 -20 Left 2
WINDOW 3 20 104 Left 2
SYMATTR InstName Vref1
SYMATTR Value 24
SYMBOL res 1040 464 R90
WINDOW 0 0 56 VBottom 2
WINDOW 3 32 56 VTop 2
SYMATTR InstName R2
SYMATTR Value 1k
SYMBOL cap 864 512 R0
SYMATTR InstName C2
SYMATTR Value 10000nf
SYMBOL res 1216 160 R0
SYMATTR InstName R3
SYMATTR Value 10k
SYMBOL cap 1296 320 R0
SYMATTR InstName C3
SYMATTR Value 10nf
TEXT 0 352 Left 2 !.tran 0 250ms 0 1
TEXT 856 -248 Left 2 !.model SW SW(Ron=0.001 Roff=100Meg Vt= 0.9Vh=0.1)
